<?xml version="1.0" encoding="UTF-8"?>

<!-- generated on 11/07/18 16:46:24 by SUMO netconvert Version 0.32.0
<?xml version="1.0" encoding="UTF-8"?>

<configuration xmlns:xsi="http://www.w3.org/2001/XMLSchema-instance" xsi:noNamespaceSchemaLocation="http://sumo.dlr.de/xsd/netconvertConfiguration.xsd">

    <input>
        <osm-files value="map.osm"/>
    </input>

    <output>
        <output-file value="map.net.xml"/>
        <output.street-names value="true"/>
    </output>

    <projection>
        <proj.utm value="true"/>
    </projection>

</configuration>
-->

<net version="0.27" xmlns:xsi="http://www.w3.org/2001/XMLSchema-instance" xsi:noNamespaceSchemaLocation="http://sumo.dlr.de/xsd/net_file.xsd">

    <location netOffset="-590258.52,-4477084.32" convBoundary="0.00,0.00,898.61,808.60" origBoundary="-79.935705,40.439479,-79.925055,40.446697" projParameter="+proj=utm +zone=17 +ellps=WGS84 +datum=WGS84 +units=m +no_defs"/>

    <type id="highway.bridleway" priority="1" numLanes="1" speed="2.78" allow="pedestrian" oneway="1" width="2.00"/>
    <type id="highway.bus_guideway" priority="1" numLanes="1" speed="8.33" allow="bus" oneway="1"/>
    <type id="highway.cycleway" priority="1" numLanes="1" speed="5.56" allow="bicycle" oneway="0" width="1.00"/>
    <type id="highway.footway" priority="1" numLanes="1" speed="2.78" allow="pedestrian" oneway="1" width="2.00"/>
    <type id="highway.ford" priority="1" numLanes="1" speed="2.78" allow="army" oneway="0"/>
    <type id="highway.living_street" priority="3" numLanes="1" speed="2.78" disallow="tram rail_urban rail rail_electric ship" oneway="0"/>
    <type id="highway.motorway" priority="13" numLanes="2" speed="44.44" allow="private emergency authority army vip passenger hov taxi bus coach delivery truck trailer motorcycle evehicle custom1 custom2" oneway="1"/>
    <type id="highway.motorway_link" priority="12" numLanes="1" speed="22.22" allow="private emergency authority army vip passenger hov taxi bus coach delivery truck trailer motorcycle evehicle custom1 custom2" oneway="1"/>
    <type id="highway.path" priority="1" numLanes="1" speed="2.78" allow="bicycle pedestrian" oneway="1" width="2.00"/>
    <type id="highway.pedestrian" priority="1" numLanes="1" speed="2.78" allow="pedestrian" oneway="1" width="2.00"/>
    <type id="highway.primary" priority="9" numLanes="2" speed="27.78" disallow="tram rail_urban rail rail_electric ship" oneway="0"/>
    <type id="highway.primary_link" priority="8" numLanes="1" speed="22.22" disallow="tram rail_urban rail rail_electric ship" oneway="0"/>
    <type id="highway.raceway" priority="14" numLanes="2" speed="83.33" allow="vip" oneway="0"/>
    <type id="highway.residential" priority="4" numLanes="1" speed="13.89" disallow="tram rail_urban rail rail_electric ship" oneway="0"/>
    <type id="highway.secondary" priority="7" numLanes="2" speed="27.78" disallow="tram rail_urban rail rail_electric ship" oneway="0"/>
    <type id="highway.secondary_link" priority="6" numLanes="1" speed="22.22" disallow="tram rail_urban rail rail_electric ship" oneway="0"/>
    <type id="highway.service" priority="2" numLanes="1" speed="5.56" allow="delivery bicycle pedestrian" oneway="0"/>
    <type id="highway.services" priority="1" numLanes="1" speed="8.33" disallow="tram rail_urban rail rail_electric ship" oneway="0"/>
    <type id="highway.stairs" priority="1" numLanes="1" speed="1.39" allow="pedestrian" oneway="1" width="2.00"/>
    <type id="highway.step" priority="1" numLanes="1" speed="1.39" allow="pedestrian" oneway="1" width="2.00"/>
    <type id="highway.steps" priority="1" numLanes="1" speed="1.39" allow="pedestrian" oneway="1" width="2.00"/>
    <type id="highway.tertiary" priority="6" numLanes="1" speed="22.22" disallow="tram rail_urban rail rail_electric ship" oneway="0"/>
    <type id="highway.tertiary_link" priority="5" numLanes="1" speed="22.22" disallow="tram rail_urban rail rail_electric ship" oneway="0"/>
    <type id="highway.track" priority="1" numLanes="1" speed="5.56" disallow="tram rail_urban rail rail_electric ship" oneway="0"/>
    <type id="highway.trunk" priority="11" numLanes="2" speed="27.78" disallow="tram rail_urban rail rail_electric bicycle pedestrian ship" oneway="0"/>
    <type id="highway.trunk_link" priority="10" numLanes="1" speed="22.22" disallow="tram rail_urban rail rail_electric bicycle pedestrian ship" oneway="0"/>
    <type id="highway.unclassified" priority="5" numLanes="1" speed="13.89" disallow="tram rail_urban rail rail_electric ship" oneway="0"/>
    <type id="highway.unsurfaced" priority="1" numLanes="1" speed="8.33" disallow="tram rail_urban rail rail_electric ship" oneway="0"/>
    <type id="railway.light_rail" priority="15" numLanes="1" speed="27.78" allow="rail_urban" oneway="1"/>
    <type id="railway.preserved" priority="15" numLanes="1" speed="27.78" allow="rail" oneway="1"/>
    <type id="railway.rail" priority="15" numLanes="1" speed="83.33" allow="rail rail_electric" oneway="1"/>
    <type id="railway.subway" priority="15" numLanes="1" speed="27.78" allow="rail_urban" oneway="1"/>
    <type id="railway.tram" priority="15" numLanes="1" speed="13.89" allow="tram" oneway="1"/>

    <edge id=":104538949_0" function="internal">
        <lane id=":104538949_0_0" index="0" disallow="tram rail_urban rail rail_electric ship" speed="13.89" length="4.82" shape="553.69,582.53 552.92,583.80 552.11,584.24 551.27,583.86 550.40,582.66"/>
    </edge>
    <edge id=":104692903_0" function="internal">
        <lane id=":104692903_0_0" index="0" disallow="tram rail_urban rail rail_electric ship" speed="13.89" length="4.82" shape="-1.39,424.23 -1.36,422.74 -0.89,421.95 0.03,421.85 1.39,422.45"/>
    </edge>
    <edge id=":104692913_0" function="internal">
        <lane id=":104692913_0_0" index="0" disallow="tram rail_urban rail rail_electric ship" speed="13.89" length="9.69" shape="91.06,483.20 82.56,478.56"/>
    </edge>
    <edge id=":104692913_1" function="internal">
        <lane id=":104692913_1_0" index="0" disallow="tram rail_urban rail rail_electric ship" speed="13.89" length="5.23" shape="91.06,483.20 88.86,481.59 87.67,479.57 87.66,479.41"/>
    </edge>
    <edge id=":104692913_2" function="internal">
        <lane id=":104692913_2_0" index="0" disallow="tram rail_urban rail rail_electric ship" speed="13.89" length="2.41" shape="91.06,483.20 90.35,481.90 90.36,480.98"/>
    </edge>
    <edge id=":104692913_9" function="internal">
        <lane id=":104692913_9_0" index="0" speed="13.89" length="5.21" shape="87.66,479.41 87.51,477.15 88.36,474.33"/>
    </edge>
    <edge id=":104692913_10" function="internal">
        <lane id=":104692913_10_0" index="0" speed="13.89" length="2.41" shape="90.36,480.98 91.11,480.44 92.59,480.28"/>
    </edge>
    <edge id=":104692913_3" function="internal">
        <lane id=":104692913_3_0" index="0" disallow="tram rail_urban rail rail_electric ship" speed="13.89" length="5.35" shape="91.37,475.69 90.90,477.17 90.95,478.43 91.51,479.47 92.59,480.28"/>
    </edge>
    <edge id=":104692913_4" function="internal">
        <lane id=":104692913_4_0" index="0" disallow="tram rail_urban rail rail_electric ship" speed="13.89" length="10.80" shape="91.37,475.69 89.76,478.22 87.75,479.54 85.35,479.65 82.56,478.56"/>
    </edge>
    <edge id=":104692913_5" function="internal">
        <lane id=":104692913_5_0" index="0" disallow="tram rail_urban rail rail_electric ship" speed="13.89" length="4.82" shape="91.37,475.69 90.10,476.47 89.18,476.51 88.60,475.80 88.36,474.33"/>
    </edge>
    <edge id=":104692913_6" function="internal">
        <lane id=":104692913_6_0" index="0" disallow="tram rail_urban rail rail_electric ship" speed="13.89" length="5.11" shape="84.19,475.69 85.51,476.21 86.65,476.15 87.59,475.53 88.36,474.33"/>
    </edge>
    <edge id=":104692913_7" function="internal">
        <lane id=":104692913_7_0" index="0" disallow="tram rail_urban rail rail_electric ship" speed="13.89" length="9.57" shape="84.19,475.69 92.59,480.28"/>
    </edge>
    <edge id=":104692913_8" function="internal">
        <lane id=":104692913_8_0" index="0" disallow="tram rail_urban rail rail_electric ship" speed="13.89" length="2.41" shape="84.19,475.69 84.86,477.02 84.81,477.94"/>
    </edge>
    <edge id=":104692913_11" function="internal">
        <lane id=":104692913_11_0" index="0" speed="13.89" length="2.41" shape="84.81,477.94 84.04,478.45 82.56,478.56"/>
    </edge>
    <edge id=":104692920_0" function="internal">
        <lane id=":104692920_0_0" index="0" disallow="tram rail_urban rail rail_electric ship" speed="13.89" length="10.02" shape="185.23,531.82 182.47,530.72 180.59,529.91 178.76,529.02 176.12,527.64"/>
    </edge>
    <edge id=":104692920_1" function="internal">
        <lane id=":104692920_1_0" index="0" disallow="tram rail_urban rail rail_electric ship" speed="13.89" length="5.36" shape="185.23,531.82 182.73,530.38 181.33,528.47 181.31,528.37"/>
    </edge>
    <edge id=":104692920_2" function="internal">
        <lane id=":104692920_2_0" index="0" disallow="tram rail_urban rail rail_electric ship" speed="13.89" length="2.41" shape="185.23,531.82 184.38,530.59 184.30,529.68"/>
    </edge>
    <edge id=":104692920_9" function="internal">
        <lane id=":104692920_9_0" index="0" speed="13.89" length="5.25" shape="181.31,528.37 181.01,526.10 181.78,523.24"/>
    </edge>
    <edge id=":104692920_10" function="internal">
        <lane id=":104692920_10_0" index="0" speed="13.89" length="2.41" shape="184.30,529.68 184.98,529.06 186.44,528.75"/>
    </edge>
    <edge id=":104692920_3" function="internal">
        <lane id=":104692920_3_0" index="0" disallow="tram rail_urban rail rail_electric ship" speed="13.89" length="5.17" shape="184.82,524.54 184.43,525.95 184.57,527.12 185.24,528.05 186.44,528.75"/>
    </edge>
    <edge id=":104692920_4" function="internal">
        <lane id=":104692920_4_0" index="0" disallow="tram rail_urban rail rail_electric ship" speed="13.89" length="10.73" shape="184.82,524.54 183.27,527.08 181.31,528.44 178.92,528.63 176.12,527.64"/>
    </edge>
    <edge id=":104692920_5" function="internal">
        <lane id=":104692920_5_0" index="0" disallow="tram rail_urban rail rail_electric ship" speed="13.89" length="4.82" shape="184.82,524.54 183.57,525.35 182.65,525.41 182.05,524.71 181.78,523.24"/>
    </edge>
    <edge id=":104692920_6" function="internal">
        <lane id=":104692920_6_0" index="0" disallow="tram rail_urban rail rail_electric ship" speed="13.89" length="5.10" shape="177.65,524.72 178.98,525.19 180.11,525.10 181.05,524.45 181.78,523.24"/>
    </edge>
    <edge id=":104692920_7" function="internal">
        <lane id=":104692920_7_0" index="0" disallow="tram rail_urban rail rail_electric ship" speed="13.89" length="9.68" shape="177.65,524.72 180.20,526.04 181.96,526.91 183.77,527.68 186.44,528.75"/>
    </edge>
    <edge id=":104692920_8" function="internal">
        <lane id=":104692920_8_0" index="0" disallow="tram rail_urban rail rail_electric ship" speed="13.89" length="2.41" shape="177.65,524.72 178.36,526.02 178.35,526.95"/>
    </edge>
    <edge id=":104692920_11" function="internal">
        <lane id=":104692920_11_0" index="0" speed="13.89" length="2.41" shape="178.35,526.95 177.60,527.49 176.12,527.64"/>
    </edge>
    <edge id=":104692930_0" function="internal">
        <lane id=":104692930_0_0" index="0" disallow="tram rail_urban rail rail_electric ship" speed="13.89" length="9.50" shape="282.61,570.22 273.76,566.74"/>
    </edge>
    <edge id=":104692930_1" function="internal">
        <lane id=":104692930_1_0" index="0" disallow="tram rail_urban rail rail_electric ship" speed="13.89" length="5.25" shape="282.61,570.22 280.10,568.79 278.68,566.91"/>
    </edge>
    <edge id=":104692930_2" function="internal">
        <lane id=":104692930_2_0" index="0" disallow="tram rail_urban rail rail_electric ship" speed="13.89" length="2.41" shape="282.61,570.22 281.76,569.00 281.68,568.08"/>
    </edge>
    <edge id=":104692930_9" function="internal">
        <lane id=":104692930_9_0" index="0" speed="13.89" length="5.25" shape="278.68,566.91 278.35,564.58 279.11,561.79"/>
    </edge>
    <edge id=":104692930_10" function="internal">
        <lane id=":104692930_10_0" index="0" speed="13.89" length="2.41" shape="281.68,568.08 282.36,567.47 283.82,567.15"/>
    </edge>
    <edge id=":104692930_3" function="internal">
        <lane id=":104692930_3_0" index="0" disallow="tram rail_urban rail rail_electric ship" speed="13.89" length="5.04" shape="282.14,563.10 281.77,564.44 281.93,565.56 282.61,566.47 283.82,567.15"/>
    </edge>
    <edge id=":104692930_4" function="internal">
        <lane id=":104692930_4_0" index="0" disallow="tram rail_urban rail rail_electric ship" speed="13.89" length="10.33" shape="282.14,563.10 280.65,565.55 278.76,566.97 276.46,567.37 273.76,566.74"/>
    </edge>
    <edge id=":104692930_5" function="internal">
        <lane id=":104692930_5_0" index="0" disallow="tram rail_urban rail rail_electric ship" speed="13.89" length="4.82" shape="282.14,563.10 280.89,563.91 279.97,563.96 279.37,563.25 279.11,561.79"/>
    </edge>
    <edge id=":104692930_6" function="internal">
        <lane id=":104692930_6_0" index="0" disallow="tram rail_urban rail rail_electric ship" speed="13.89" length="5.14" shape="274.97,563.67 276.30,563.97 277.43,563.76 278.36,563.03 279.11,561.79"/>
    </edge>
    <edge id=":104692930_7" function="internal">
        <lane id=":104692930_7_0" index="0" disallow="tram rail_urban rail rail_electric ship" speed="13.89" length="9.50" shape="274.97,563.67 283.82,567.15"/>
    </edge>
    <edge id=":104692930_8" function="internal">
        <lane id=":104692930_8_0" index="0" disallow="tram rail_urban rail rail_electric ship" speed="13.89" length="2.41" shape="274.97,563.67 275.82,564.89 275.90,565.81"/>
    </edge>
    <edge id=":104692930_11" function="internal">
        <lane id=":104692930_11_0" index="0" speed="13.89" length="2.41" shape="275.90,565.81 275.22,566.42 273.76,566.74"/>
    </edge>
    <edge id=":104692938_0" function="internal">
        <lane id=":104692938_0_0" index="0" disallow="tram rail_urban rail rail_electric ship" speed="13.89" length="10.39" shape="449.49,635.66 439.71,632.16"/>
    </edge>
    <edge id=":104692938_1" function="internal">
        <lane id=":104692938_1_0" index="0" disallow="tram rail_urban rail rail_electric ship" speed="13.89" length="5.00" shape="449.49,635.66 447.35,634.55 445.81,632.67 445.75,632.52"/>
    </edge>
    <edge id=":104692938_2" function="internal">
        <lane id=":104692938_2_0" index="0" disallow="tram rail_urban rail rail_electric ship" speed="13.89" length="2.56" shape="449.49,635.66 448.54,634.51 448.38,633.60 448.48,633.50"/>
    </edge>
    <edge id=":104692938_9" function="internal">
        <lane id=":104692938_9_0" index="0" speed="13.89" length="6.09" shape="445.75,632.52 444.84,630.03 444.47,626.62"/>
    </edge>
    <edge id=":104692938_10" function="internal">
        <lane id=":104692938_10_0" index="0" speed="13.89" length="2.26" shape="448.48,633.50 449.01,632.93 450.43,632.50"/>
    </edge>
    <edge id=":104692938_3" function="internal">
        <lane id=":104692938_3_0" index="0" disallow="tram rail_urban rail rail_electric ship" speed="13.89" length="6.93" shape="447.77,626.54 447.98,628.86 448.49,630.63 449.31,631.84 450.43,632.50"/>
    </edge>
    <edge id=":104692938_4" function="internal">
        <lane id=":104692938_4_0" index="0" disallow="tram rail_urban rail rail_electric ship" speed="13.89" length="12.66" shape="447.77,626.54 447.34,630.22 445.85,632.38 443.31,633.03 439.71,632.16"/>
    </edge>
    <edge id=":104692938_5" function="internal">
        <lane id=":104692938_5_0" index="0" disallow="tram rail_urban rail rail_electric ship" speed="13.89" length="4.82" shape="447.77,626.54 446.97,627.80 446.15,628.23 445.32,627.83 444.47,626.62"/>
    </edge>
    <edge id=":104692938_6" function="internal">
        <lane id=":104692938_6_0" index="0" disallow="tram rail_urban rail rail_electric ship" speed="13.89" length="5.57" shape="440.92,629.09 442.50,629.47 443.62,629.19 444.28,628.23 444.47,626.62"/>
    </edge>
    <edge id=":104692938_7" function="internal">
        <lane id=":104692938_7_0" index="0" disallow="tram rail_urban rail rail_electric ship" speed="13.89" length="10.11" shape="440.92,629.09 450.43,632.50"/>
    </edge>
    <edge id=":104692938_8" function="internal">
        <lane id=":104692938_8_0" index="0" disallow="tram rail_urban rail rail_electric ship" speed="13.89" length="2.41" shape="440.92,629.09 441.77,630.31 441.85,631.23"/>
    </edge>
    <edge id=":104692938_11" function="internal">
        <lane id=":104692938_11_0" index="0" speed="13.89" length="2.41" shape="441.85,631.23 441.16,631.85 439.71,632.16"/>
    </edge>
    <edge id=":104692975_0" function="internal">
        <lane id=":104692975_0_0" index="0" disallow="tram rail_urban rail rail_electric ship" speed="13.89" length="4.82" shape="899.22,807.06 900.07,808.29 900.14,809.21 899.45,809.82 898.00,810.13"/>
    </edge>
    <edge id=":104719293_0" function="internal">
        <lane id=":104719293_0_0" index="0" disallow="tram rail_urban rail rail_electric ship" speed="13.89" length="10.19" shape="534.76,359.55 533.95,356.66 533.43,354.63 533.03,352.58 532.56,349.61"/>
    </edge>
    <edge id=":104719293_1" function="internal">
        <lane id=":104719293_1_0" index="0" disallow="tram rail_urban rail rail_electric ship" speed="13.89" length="5.56" shape="534.76,359.55 534.34,356.38 535.06,354.13"/>
    </edge>
    <edge id=":104719293_2" function="internal">
        <lane id=":104719293_2_0" index="0" disallow="tram rail_urban rail rail_electric ship" speed="13.89" length="2.41" shape="534.76,359.55 535.22,358.13 535.90,357.51"/>
    </edge>
    <edge id=":104719293_9" function="internal">
        <lane id=":104719293_9_0" index="0" speed="13.89" length="5.78" shape="535.06,354.13 535.10,354.02 537.03,352.49 540.15,351.76"/>
    </edge>
    <edge id=":104719293_10" function="internal">
        <lane id=":104719293_10_0" index="0" speed="13.89" length="2.41" shape="535.90,357.51 536.81,357.69 537.94,358.65"/>
    </edge>
    <edge id=":104719293_3" function="internal">
        <lane id=":104719293_3_0" index="0" disallow="tram rail_urban rail rail_electric ship" speed="13.89" length="5.25" shape="540.43,355.05 538.99,355.39 538.09,356.10 537.74,357.19 537.94,358.65"/>
    </edge>
    <edge id=":104719293_4" function="internal">
        <lane id=":104719293_4_0" index="0" disallow="tram rail_urban rail rail_electric ship" speed="13.89" length="10.74" shape="540.43,355.05 537.33,354.93 534.98,353.99 533.39,352.21 532.56,349.61"/>
    </edge>
    <edge id=":104719293_5" function="internal">
        <lane id=":104719293_5_0" index="0" disallow="tram rail_urban rail rail_electric ship" speed="13.89" length="4.82" shape="540.43,355.05 539.13,354.33 538.65,353.55 538.99,352.69 540.15,351.76"/>
    </edge>
    <edge id=":104719293_6" function="internal">
        <lane id=":104719293_6_0" index="0" disallow="tram rail_urban rail rail_electric ship" speed="13.89" length="5.67" shape="535.83,349.12 536.26,350.40 537.13,351.27 538.43,351.72 540.15,351.76"/>
    </edge>
    <edge id=":104719293_7" function="internal">
        <lane id=":104719293_7_0" index="0" disallow="tram rail_urban rail rail_electric ship" speed="13.89" length="9.77" shape="535.83,349.12 536.27,351.99 536.65,353.94 537.15,355.86 537.94,358.65"/>
    </edge>
    <edge id=":104719293_8" function="internal">
        <lane id=":104719293_8_0" index="0" disallow="tram rail_urban rail rail_electric ship" speed="13.89" length="2.41" shape="535.83,349.12 535.19,350.47 534.44,351.00"/>
    </edge>
    <edge id=":104719293_11" function="internal">
        <lane id=":104719293_11_0" index="0" speed="13.89" length="2.41" shape="534.44,351.00 533.56,350.71 532.56,349.61"/>
    </edge>
    <edge id=":104719355_0" function="internal">
        <lane id=":104719355_0_0" index="0" disallow="tram rail_urban rail rail_electric ship" speed="13.89" length="4.82" shape="596.29,347.03 597.59,347.75 598.07,348.53 597.73,349.39 596.57,350.32"/>
    </edge>
    <edge id=":104787343_0" function="internal">
        <lane id=":104787343_0_0" index="0" disallow="tram rail_urban rail rail_electric ship" speed="13.89" length="6.36" shape="338.58,443.04 336.76,442.85 335.26,443.16 334.09,443.99 333.24,445.32"/>
    </edge>
    <edge id=":104787343_1" function="internal">
        <lane id=":104787343_1_0" index="0" disallow="tram rail_urban rail rail_electric ship" speed="13.89" length="10.50" shape="338.58,443.04 335.61,442.36 333.48,441.79 331.40,441.07 328.57,439.94"/>
    </edge>
    <edge id=":104787343_2" function="internal">
        <lane id=":104787343_2_0" index="0" disallow="tram rail_urban rail rail_electric ship" speed="13.89" length="11.32" shape="338.58,443.04 335.60,441.90 333.89,440.12 333.45,437.69 334.28,434.61"/>
    </edge>
    <edge id=":104787343_3" function="internal">
        <lane id=":104787343_3_0" index="0" disallow="tram rail_urban rail rail_electric ship" speed="13.89" length="4.82" shape="338.58,443.04 337.55,441.96 337.33,441.07 337.91,440.35 339.30,439.82"/>
    </edge>
    <edge id=":104787343_4" function="internal">
        <lane id=":104787343_4_0" index="0" disallow="tram rail_urban rail rail_electric ship" speed="13.89" length="5.24" shape="337.31,435.92 336.93,437.34 337.13,438.47 337.92,439.29 339.30,439.82"/>
    </edge>
    <edge id=":104787343_5" function="internal">
        <lane id=":104787343_5_0" index="0" disallow="tram rail_urban rail rail_electric ship" speed="13.89" length="10.24" shape="337.31,435.92 333.24,445.32"/>
    </edge>
    <edge id=":104787343_6" function="internal">
        <lane id=":104787343_6_0" index="0" disallow="tram rail_urban rail rail_electric ship" speed="13.89" length="5.76" shape="337.31,435.92 335.72,438.60 333.73,440.16 333.62,440.18"/>
    </edge>
    <edge id=":104787343_7" function="internal">
        <lane id=":104787343_7_0" index="0" disallow="tram rail_urban rail rail_electric ship" speed="13.89" length="2.41" shape="337.31,435.92 336.06,436.73 335.14,436.78"/>
    </edge>
    <edge id=":104787343_16" function="internal">
        <lane id=":104787343_16_0" index="0" speed="13.89" length="5.17" shape="333.62,440.18 331.35,440.61 328.57,439.94"/>
    </edge>
    <edge id=":104787343_17" function="internal">
        <lane id=":104787343_17_0" index="0" speed="13.89" length="2.41" shape="335.14,436.78 334.55,436.07 334.28,434.61"/>
    </edge>
    <edge id=":104787343_8" function="internal">
        <lane id=":104787343_8_0" index="0" disallow="tram rail_urban rail rail_electric ship" speed="13.89" length="5.68" shape="329.82,436.89 331.21,437.20 332.41,436.92 333.44,436.06 334.28,434.61"/>
    </edge>
    <edge id=":104787343_9" function="internal">
        <lane id=":104787343_9_0" index="0" disallow="tram rail_urban rail rail_electric ship" speed="13.89" length="9.94" shape="329.82,436.89 332.56,437.99 334.47,438.65 336.42,439.17 339.30,439.82"/>
    </edge>
    <edge id=":104787343_10" function="internal">
        <lane id=":104787343_10_0" index="0" disallow="tram rail_urban rail rail_electric ship" speed="13.89" length="10.42" shape="329.82,436.89 332.29,438.34 333.68,440.23 334.00,442.55 333.24,445.32"/>
    </edge>
    <edge id=":104787343_11" function="internal">
        <lane id=":104787343_11_0" index="0" disallow="tram rail_urban rail rail_electric ship" speed="13.89" length="4.82" shape="329.82,436.89 330.65,438.12 330.72,439.04 330.03,439.65 328.57,439.94"/>
    </edge>
    <edge id=":104787343_12" function="internal">
        <lane id=":104787343_12_0" index="0" disallow="tram rail_urban rail rail_electric ship" speed="13.89" length="5.02" shape="330.22,444.00 330.58,442.67 330.43,441.55 329.76,440.64 328.57,439.94"/>
    </edge>
    <edge id=":104787343_13" function="internal">
        <lane id=":104787343_13_0" index="0" disallow="tram rail_urban rail rail_electric ship" speed="13.89" length="10.23" shape="330.22,444.00 334.28,434.61"/>
    </edge>
    <edge id=":104787343_14" function="internal">
        <lane id=":104787343_14_0" index="0" disallow="tram rail_urban rail rail_electric ship" speed="13.89" length="5.32" shape="330.22,444.00 331.71,441.62 333.72,440.12"/>
    </edge>
    <edge id=":104787343_15" function="internal">
        <lane id=":104787343_15_0" index="0" disallow="tram rail_urban rail rail_electric ship" speed="13.89" length="2.41" shape="330.22,444.00 331.47,443.19 332.39,443.14"/>
    </edge>
    <edge id=":104787343_18" function="internal">
        <lane id=":104787343_18_0" index="0" speed="13.89" length="5.67" shape="333.72,440.12 336.25,439.52 339.30,439.82"/>
    </edge>
    <edge id=":104787343_19" function="internal">
        <lane id=":104787343_19_0" index="0" speed="13.89" length="2.41" shape="332.39,443.14 332.98,443.85 333.24,445.32"/>
    </edge>
    <edge id=":104949802_0" function="internal">
        <lane id=":104949802_0_0" index="0" disallow="tram rail_urban rail rail_electric ship" speed="13.89" length="5.00" shape="146.41,361.09 145.09,360.70 143.97,360.83 143.04,361.48 142.30,362.64"/>
    </edge>
    <edge id=":104949802_1" function="internal">
        <lane id=":104949802_1_0" index="0" disallow="tram rail_urban rail rail_electric ship" speed="13.89" length="10.30" shape="146.41,361.09 144.02,359.57 142.68,357.66 142.38,355.35 143.13,352.64"/>
    </edge>
    <edge id=":104949802_2" function="internal">
        <lane id=":104949802_2_0" index="0" disallow="tram rail_urban rail rail_electric ship" speed="13.89" length="4.82" shape="146.41,361.09 145.62,359.83 145.59,358.91 146.31,358.33 147.77,358.09"/>
    </edge>
    <edge id=":104949802_3" function="internal">
        <lane id=":104949802_3_0" index="0" disallow="tram rail_urban rail rail_electric ship" speed="13.89" length="5.03" shape="146.16,353.97 145.79,355.28 145.94,356.41 146.60,357.34 147.77,358.09"/>
    </edge>
    <edge id=":104949802_4" function="internal">
        <lane id=":104949802_4_0" index="0" disallow="tram rail_urban rail rail_electric ship" speed="13.89" length="9.48" shape="146.16,353.97 142.30,362.64"/>
    </edge>
    <edge id=":104949802_5" function="internal">
        <lane id=":104949802_5_0" index="0" disallow="tram rail_urban rail rail_electric ship" speed="13.89" length="2.41" shape="146.16,353.97 144.90,354.77 143.98,354.82"/>
    </edge>
    <edge id=":104949802_9" function="internal">
        <lane id=":104949802_9_0" index="0" speed="13.89" length="2.41" shape="143.98,354.82 143.39,354.11 143.13,352.64"/>
    </edge>
    <edge id=":104949802_6" function="internal">
        <lane id=":104949802_6_0" index="0" disallow="tram rail_urban rail rail_electric ship" speed="13.89" length="9.45" shape="139.30,361.28 143.13,352.64"/>
    </edge>
    <edge id=":104949802_7" function="internal">
        <lane id=":104949802_7_0" index="0" disallow="tram rail_urban rail rail_electric ship" speed="13.89" length="5.17" shape="139.30,361.28 140.81,358.89 142.73,357.56"/>
    </edge>
    <edge id=":104949802_8" function="internal">
        <lane id=":104949802_8_0" index="0" disallow="tram rail_urban rail rail_electric ship" speed="13.89" length="2.41" shape="139.30,361.28 140.56,360.49 141.48,360.45"/>
    </edge>
    <edge id=":104949802_10" function="internal">
        <lane id=":104949802_10_0" index="0" speed="13.89" length="5.17" shape="142.73,357.56 145.05,357.29 147.77,358.09"/>
    </edge>
    <edge id=":104949802_11" function="internal">
        <lane id=":104949802_11_0" index="0" speed="13.89" length="2.41" shape="141.48,360.45 142.06,361.17 142.30,362.64"/>
    </edge>
    <edge id=":104949824_0" function="internal">
        <lane id=":104949824_0_0" index="0" disallow="tram rail_urban rail rail_electric ship" speed="13.89" length="4.82" shape="296.20,-0.64 297.44,-1.46 298.36,-1.52 298.96,-0.82 299.24,0.64"/>
    </edge>
    <edge id=":105060263_0" function="internal">
        <lane id=":105060263_0_0" index="0" disallow="tram rail_urban rail rail_electric ship" speed="13.89" length="5.10" shape="239.95,403.48 238.57,403.12 237.42,403.27 236.48,403.92 235.77,405.09"/>
    </edge>
    <edge id=":105060263_1" function="internal">
        <lane id=":105060263_1_0" index="0" disallow="tram rail_urban rail rail_electric ship" speed="13.89" length="9.68" shape="239.95,403.48 231.07,399.63"/>
    </edge>
    <edge id=":105060263_2" function="internal">
        <lane id=":105060263_2_0" index="0" disallow="tram rail_urban rail rail_electric ship" speed="13.89" length="10.47" shape="239.95,403.48 237.47,402.01 236.08,400.12 235.78,397.78 236.57,395.01"/>
    </edge>
    <edge id=":105060263_3" function="internal">
        <lane id=":105060263_3_0" index="0" disallow="tram rail_urban rail rail_electric ship" speed="13.89" length="4.82" shape="239.95,403.48 239.12,402.24 239.06,401.33 239.75,400.72 241.21,400.43"/>
    </edge>
    <edge id=":105060263_4" function="internal">
        <lane id=":105060263_4_0" index="0" disallow="tram rail_urban rail rail_electric ship" speed="13.89" length="5.04" shape="239.58,396.35 239.20,397.69 239.35,398.81 240.02,399.72 241.21,400.43"/>
    </edge>
    <edge id=":105060263_5" function="internal">
        <lane id=":105060263_5_0" index="0" disallow="tram rail_urban rail rail_electric ship" speed="13.89" length="9.53" shape="239.58,396.35 235.77,405.09"/>
    </edge>
    <edge id=":105060263_6" function="internal">
        <lane id=":105060263_6_0" index="0" disallow="tram rail_urban rail rail_electric ship" speed="13.89" length="5.23" shape="239.58,396.35 238.05,398.79 236.13,400.15"/>
    </edge>
    <edge id=":105060263_7" function="internal">